Version 4
SHEET 1 1288 680
WIRE 208 16 80 16
WIRE 400 16 272 16
WIRE 272 32 272 16
WIRE 288 32 272 32
WIRE 400 48 400 16
WIRE 544 48 400 48
WIRE 208 64 208 16
WIRE 288 64 288 32
WIRE 544 112 544 48
WIRE 80 128 80 16
WIRE 96 208 80 208
WIRE 400 208 400 192
WIRE 400 208 96 208
WIRE 544 208 544 176
WIRE 544 208 400 208
WIRE 96 288 96 208
FLAG 96 288 0
SYMBOL voltage 80 112 R0
WINDOW 3 24 44 Left 2
SYMATTR InstName V1
SYMATTR Value PWL REPEAT FOR 10 (0 0 1m 1 2m 1 3m 0)  REPEAT FOR 10 (10m 0 11m 1 12m 1 13m 0) ENDREPEAT
SYMBOL cap 528 112 R0
SYMATTR InstName C1
SYMATTR Value 10µ
SYMBOL res 192 48 M90
WINDOW 0 0 56 VBottom 2
WINDOW 3 32 56 VTop 2
SYMATTR InstName R1
SYMATTR Value 1k
TEXT 46 312 Left 2 !.tran 100ms
