Version 4
SHEET 1 1840 792
WIRE -976 160 -1072 160
WIRE -848 160 -896 160
WIRE -640 160 -848 160
<<<<<<< HEAD
WIRE 80 160 80 96
=======
>>>>>>> 1d4e5df864c5498fc82c649544277a89b70cbf1b
WIRE 128 160 80 160
WIRE -480 176 -576 176
WIRE -416 176 -480 176
WIRE 304 176 192 176
WIRE 368 176 304 176
WIRE -640 192 -736 192
<<<<<<< HEAD
WIRE 128 192 96 192
WIRE -736 224 -736 192
WIRE -1072 288 -1072 160
WIRE 96 336 96 192
WIRE 128 336 96 336
WIRE 304 336 304 176
WIRE 304 336 208 336
WIRE -848 432 -848 160
WIRE -640 432 -848 432
WIRE -480 432 -480 176
WIRE -480 432 -576 432
=======
WIRE 128 192 48 192
WIRE -736 224 -736 192
WIRE -1072 288 -1072 160
WIRE 48 336 48 192
WIRE 128 336 48 336
WIRE 304 336 304 176
WIRE 304 336 208 336
WIRE -656 368 -720 368
WIRE -544 368 -576 368
WIRE 48 368 48 336
WIRE -848 432 -848 160
WIRE -720 432 -720 368
WIRE -720 432 -848 432
WIRE -544 432 -544 368
WIRE -480 432 -480 176
WIRE -480 432 -544 432
WIRE -720 496 -720 432
WIRE -640 496 -720 496
WIRE -544 496 -544 432
WIRE -544 496 -576 496
WIRE 432 560 192 560
WIRE 688 560 512 560
WIRE -64 656 -96 656
WIRE 192 656 192 560
WIRE 192 656 16 656
WIRE 288 656 192 656
WIRE 688 672 688 560
WIRE 688 672 352 672
WIRE 768 672 688 672
WIRE 288 688 224 688
WIRE 224 752 224 688
>>>>>>> 1d4e5df864c5498fc82c649544277a89b70cbf1b
FLAG 624 336 0
FLAG 800 336 0
FLAG 624 256 VCC
FLAG 800 256 VEE
FLAG 160 208 VEE
FLAG 160 144 VCC
<<<<<<< HEAD
=======
FLAG 80 160 Vin
>>>>>>> 1d4e5df864c5498fc82c649544277a89b70cbf1b
FLAG 368 176 Vout
FLAG -608 144 VCC
FLAG -608 208 VEE
FLAG -1072 288 Vout
FLAG -416 176 Vin2
FLAG -736 224 0
<<<<<<< HEAD
FLAG 16 192 Vin2
FLAG 80 96 0
=======
FLAG 48 448 0
FLAG 224 752 0
FLAG 768 672 Vin
FLAG -96 656 Vin2
FLAG 320 640 VCC
FLAG 320 704 VEE
>>>>>>> 1d4e5df864c5498fc82c649544277a89b70cbf1b
SYMBOL Opamps\\opamp2 160 112 R0
SYMATTR InstName U1
SYMATTR Value TL084
SYMBOL voltage 624 240 R0
SYMATTR InstName V1
SYMATTR Value 15
SYMBOL voltage 800 240 R0
SYMATTR InstName V2
SYMATTR Value -15
SYMBOL res 224 320 R90
WINDOW 0 0 56 VBottom 2
WINDOW 3 32 56 VTop 2
SYMATTR InstName R2
<<<<<<< HEAD
SYMATTR Value 3k
SYMBOL Opamps\\opamp2 -608 112 R0
SYMATTR InstName U2
SYMATTR Value TL084
=======
SYMATTR Value 2k
SYMBOL res 32 352 R0
SYMATTR InstName R1
SYMATTR Value 1k
SYMBOL Opamps\\opamp2 -608 112 R0
SYMATTR InstName U2
SYMATTR Value TL084
SYMBOL cap -576 480 R90
WINDOW 0 0 32 VBottom 2
WINDOW 3 32 32 VTop 2
SYMATTR InstName C1
SYMATTR Value 1n
SYMBOL res -560 352 R90
WINDOW 0 0 56 VBottom 2
WINDOW 3 32 56 VTop 2
SYMATTR InstName R3
SYMATTR Value 10k
>>>>>>> 1d4e5df864c5498fc82c649544277a89b70cbf1b
SYMBOL res -880 144 R90
WINDOW 0 0 56 VBottom 2
WINDOW 3 32 56 VTop 2
SYMATTR InstName R4
SYMATTR Value 1k
<<<<<<< HEAD
SYMBOL res 112 176 R90
WINDOW 0 0 56 VBottom 2
WINDOW 3 32 56 VTop 2
SYMATTR InstName R1
SYMATTR Value 1k
SYMBOL cap -576 416 R90
WINDOW 0 0 32 VBottom 2
WINDOW 3 32 32 VTop 2
SYMATTR InstName C1
SYMATTR Value 300n
TEXT 1096 224 Left 2 !.include TL084.lib
TEXT 1104 264 Left 2 !.tran 1000m
=======
SYMBOL res 32 640 R90
WINDOW 0 0 56 VBottom 2
WINDOW 3 32 56 VTop 2
SYMATTR InstName R5
SYMATTR Value 1k
SYMBOL res 528 544 R90
WINDOW 0 0 56 VBottom 2
WINDOW 3 32 56 VTop 2
SYMATTR InstName R6
SYMATTR Value 1k
SYMBOL Opamps\\opamp2 320 608 R0
SYMATTR InstName U3
SYMATTR Value TL084
TEXT 1096 224 Left 2 !.include TL084.lib
TEXT 1104 264 Left 2 !.tran 10m
TEXT 792 576 Left 2 ;K=R6/R5
>>>>>>> 1d4e5df864c5498fc82c649544277a89b70cbf1b
TEXT 256 120 Left 2 ;Vseuil=(VCC*R1)/(R1+R2)
