Version 4
SHEET 1 1840 1240
WIRE -976 160 -1072 160
WIRE -848 160 -896 160
WIRE -640 160 -848 160
WIRE 80 160 80 96
WIRE 128 160 80 160
WIRE -480 176 -576 176
WIRE -416 176 -480 176
WIRE 304 176 192 176
WIRE 368 176 304 176
WIRE -640 192 -736 192
WIRE 128 192 96 192
WIRE -736 224 -736 192
WIRE -1072 288 -1072 160
WIRE 96 336 96 192
WIRE 128 336 96 336
WIRE 304 336 304 176
WIRE 304 336 208 336
WIRE -848 432 -848 160
WIRE -640 432 -848 432
WIRE -480 432 -480 176
WIRE -480 432 -576 432
WIRE 64 544 -16 544
WIRE 224 544 128 544
FLAG 624 336 0
FLAG 800 336 0
FLAG 624 256 VCC
FLAG 800 256 VEE
FLAG 160 208 VEE
FLAG 160 144 VCC
FLAG 368 176 Vout
FLAG -608 144 VCC
FLAG -608 208 VEE
FLAG -1072 288 Vout
FLAG -416 176 Vin2
FLAG -736 224 0
FLAG 16 192 Vin2
FLAG 80 96 0
FLAG 80 512 VCC
FLAG 96 576 VEE
FLAG -16 544 Vout
FLAG 224 544 Vout2
SYMBOL Opamps\\opamp2 160 112 R0
SYMATTR InstName U1
SYMATTR Value TL084
SYMBOL voltage 624 240 R0
SYMATTR InstName V1
SYMATTR Value 15
SYMBOL voltage 800 240 R0
SYMATTR InstName V2
SYMATTR Value -15
SYMBOL res 224 320 R90
WINDOW 0 0 56 VBottom 2
WINDOW 3 32 56 VTop 2
SYMATTR InstName R2
SYMATTR Value 3k
SYMBOL Opamps\\opamp2 -608 112 R0
SYMATTR InstName U2
SYMATTR Value TL084
SYMBOL res -880 144 R90
WINDOW 0 0 56 VBottom 2
WINDOW 3 32 56 VTop 2
SYMATTR InstName R4
SYMATTR Value 1k
SYMBOL res 112 176 R90
WINDOW 0 0 56 VBottom 2
WINDOW 3 32 56 VTop 2
SYMATTR InstName R1
SYMATTR Value 1k
SYMBOL cap -576 416 R90
WINDOW 0 0 32 VBottom 2
WINDOW 3 32 32 VTop 2
SYMATTR InstName C1
SYMATTR Value 68n
SYMBOL Opamps\\LT1010 96 480 R0
SYMATTR InstName U3
TEXT 1096 224 Left 2 !.include TL084.lib
TEXT 1104 264 Left 2 !.tran 1000m
TEXT 256 120 Left 2 ;Vseuil=(VCC*R1)/(R1+R2)
