Version 4
SHEET 1 1840 680
WIRE -976 160 -1072 160
WIRE -848 160 -896 160
WIRE -640 160 -848 160
WIRE 128 160 80 160
WIRE -480 176 -576 176
WIRE -416 176 -480 176
WIRE 304 176 192 176
WIRE 368 176 304 176
WIRE -640 192 -736 192
WIRE 128 192 48 192
WIRE -736 224 -736 192
WIRE -1072 288 -1072 160
WIRE 48 336 48 192
WIRE 128 336 48 336
WIRE 304 336 304 176
WIRE 304 336 208 336
WIRE -656 368 -720 368
WIRE -544 368 -576 368
WIRE 48 368 48 336
WIRE -848 432 -848 160
WIRE -720 432 -720 368
WIRE -720 432 -848 432
WIRE -544 432 -544 368
WIRE -480 432 -480 176
WIRE -480 432 -544 432
WIRE -720 496 -720 432
WIRE -640 496 -720 496
WIRE -544 496 -544 432
WIRE -544 496 -576 496
FLAG 624 336 0
FLAG 800 336 0
FLAG 624 256 VCC
FLAG 800 256 VEE
FLAG 160 208 VEE
FLAG 160 144 VCC
FLAG 48 448 0
FLAG 80 160 Vin2
FLAG 368 176 Vout
FLAG -608 144 VCC
FLAG -608 208 VEE
FLAG -1072 288 Vout2
FLAG -416 176 Vin
FLAG -736 224 0
FLAG 1648 416 0
FLAG 1648 336 Vin2
SYMBOL Opamps\\opamp2 160 112 R0
SYMATTR InstName U1
SYMATTR Value TL082
SYMBOL voltage 624 240 R0
SYMATTR InstName V1
SYMATTR Value 15
SYMBOL voltage 800 240 R0
SYMATTR InstName V2
SYMATTR Value -15
SYMBOL res 224 320 R90
WINDOW 0 0 56 VBottom 2
WINDOW 3 32 56 VTop 2
SYMATTR InstName R1
SYMATTR Value 1k
SYMBOL res 32 352 R0
SYMATTR InstName R2
SYMATTR Value 1k
SYMBOL Opamps\\opamp2 -608 112 R0
SYMATTR InstName U2
SYMATTR Value TL082
SYMBOL cap -576 480 R90
WINDOW 0 0 32 VBottom 2
WINDOW 3 32 32 VTop 2
SYMATTR InstName C1
SYMBOL res -560 352 R90
WINDOW 0 0 56 VBottom 2
WINDOW 3 32 56 VTop 2
SYMATTR InstName R3
SYMBOL res -880 144 R90
WINDOW 0 0 56 VBottom 2
WINDOW 3 32 56 VTop 2
SYMATTR InstName R4
SYMBOL voltage 1648 320 R0
WINDOW 123 0 0 Left 0
WINDOW 39 0 0 Left 0
SYMATTR InstName V3
SYMATTR Value SINE(0 15 1k)
TEXT 1096 224 Left 2 !.include TL082
TEXT 1104 264 Left 2 !.tran 10m
