Version 4
SHEET 1 1120 680
WIRE 368 208 368 128
WIRE 368 304 368 288
WIRE 480 304 368 304
WIRE 368 336 368 304
FLAG 32 224 0
FLAG 32 144 Vin
FLAG 368 128 Vin
FLAG 368 400 0
SYMBOL voltage 32 128 R0
WINDOW 3 24 96 Invisible 2
WINDOW 123 0 0 Left 0
WINDOW 39 0 0 Left 0
SYMATTR InstName V1
SYMATTR Value PULSE(0 5 0 0.01m 0.01m 1m 2m)
SYMBOL res 352 192 R0
SYMATTR InstName R1
SYMATTR Value 1000
SYMBOL cap 352 336 R0
SYMATTR InstName C1
SYMATTR Value 17µ
TEXT -2 424 Left 2 !.tran 1m
