Version 4
SHEET 1 1220 2148
WIRE -3472 32 -3504 32
WIRE -3376 32 -3408 32
WIRE -3504 144 -3504 32
WIRE -3472 144 -3504 144
WIRE -3376 144 -3376 32
WIRE -3376 144 -3392 144
WIRE -1120 192 -1152 192
WIRE -848 208 -1056 208
WIRE -1120 224 -1216 224
WIRE -3872 256 -3904 256
WIRE -3696 256 -3792 256
WIRE -3504 256 -3504 144
WIRE -3504 256 -3632 256
WIRE -3472 256 -3504 256
WIRE -3376 272 -3376 144
WIRE -3376 272 -3408 272
WIRE -3232 272 -3376 272
WIRE -3472 288 -3504 288
WIRE 896 352 800 352
WIRE 1040 352 976 352
WIRE -3504 400 -3504 288
WIRE 800 464 800 352
WIRE 800 464 704 464
WIRE 864 464 800 464
WIRE 1040 480 1040 352
WIRE 1040 480 928 480
WIRE 1120 480 1040 480
WIRE -1120 496 -1152 496
WIRE 864 496 768 496
WIRE -848 512 -1056 512
WIRE -1120 528 -1216 528
WIRE -3456 544 -3488 544
WIRE -3360 544 -3392 544
WIRE 768 560 768 496
WIRE 768 560 704 560
WIRE -3488 656 -3488 544
WIRE -3456 656 -3488 656
WIRE -3360 656 -3360 544
WIRE -3360 656 -3376 656
WIRE -3856 768 -3904 768
WIRE -3680 768 -3776 768
WIRE -3488 768 -3488 656
WIRE -3488 768 -3616 768
WIRE -3456 768 -3488 768
WIRE -3360 784 -3360 656
WIRE -3360 784 -3392 784
WIRE -3216 784 -3360 784
WIRE -3456 800 -3488 800
WIRE -3488 912 -3488 800
WIRE -1088 1296 -1136 1296
WIRE -960 1296 -1008 1296
WIRE -912 1296 -960 1296
WIRE -800 1296 -832 1296
WIRE -1136 1344 -1136 1296
WIRE -1136 1344 -1264 1344
WIRE -960 1360 -960 1296
WIRE -912 1360 -960 1360
WIRE -800 1376 -800 1296
WIRE -800 1376 -848 1376
WIRE -752 1376 -800 1376
WIRE -1136 1392 -1136 1344
WIRE -1088 1392 -1136 1392
WIRE -960 1392 -1008 1392
WIRE -912 1392 -960 1392
WIRE -1264 1424 -1264 1344
WIRE -960 1440 -960 1392
WIRE -960 1536 -960 1504
FLAG -1152 192 0
FLAG 896 448 V++
FLAG 896 512 V--
FLAG 624 464 VS1
IOPIN 624 464 In
FLAG 624 560 VS2
IOPIN 624 560 In
FLAG 768 640 0
FLAG -960 1536 0
FLAG -1824 -368 0
FLAG -1728 -368 0
FLAG -3504 400 0
FLAG -1824 -448 V++
IOPIN -1824 -448 Out
FLAG -1728 -448 V--
IOPIN -1728 -448 Out
FLAG -3440 304 V--
FLAG -3440 240 V++
FLAG -2864 -320 0
FLAG -2464 -320 0
FLAG -2864 -480 In1
IOPIN -2864 -480 Out
FLAG -2464 -480 In2
IOPIN -2464 -480 Out
FLAG -3904 256 In1
IOPIN -3904 256 In
FLAG -3488 912 0
FLAG -3424 816 V--
FLAG -3424 752 V++
FLAG -3904 768 In2
IOPIN -3904 768 In
FLAG -3232 272 VF1
IOPIN -3232 272 Out
FLAG -3216 784 VF2
IOPIN -3216 784 Out
FLAG -1088 176 V++
IOPIN -1088 176 In
FLAG -1088 240 V--
IOPIN -1088 240 In
FLAG -1216 224 VF1
IOPIN -1216 224 In
FLAG -848 208 VS1
IOPIN -848 208 Out
FLAG -1152 496 0
FLAG -1088 480 V++
IOPIN -1088 480 In
FLAG -1088 544 V--
IOPIN -1088 544 In
FLAG -1216 528 VDP2
IOPIN -1216 528 In
FLAG -848 512 VS2
IOPIN -848 512 Out
FLAG -1264 1424 VF2
IOPIN -1264 1424 In
FLAG -752 1376 VDP2
IOPIN -752 1376 Out
SYMBOL Opamps\\opamp2 -1088 144 R0
SYMATTR InstName U1
SYMATTR Value TL084
SYMBOL Opamps\\opamp2 896 416 R0
SYMATTR InstName U2
SYMATTR Value TL084
SYMBOL res 720 448 R90
WINDOW 0 0 56 VBottom 2
WINDOW 3 32 56 VTop 2
SYMATTR InstName R1
SYMATTR Value 10k
SYMBOL res 720 544 R90
WINDOW 0 0 56 VBottom 2
WINDOW 3 32 56 VTop 2
SYMATTR InstName R2
SYMATTR Value 10k
SYMBOL res 992 336 R90
WINDOW 0 0 56 VBottom 2
WINDOW 3 32 56 VTop 2
SYMATTR InstName R3
SYMATTR Value 20k
SYMBOL res 752 544 R0
SYMATTR InstName R4
SYMATTR Value 20k
SYMBOL Opamps\\opamp -880 1312 R0
SYMATTR InstName U4
SYMATTR SpiceLine2 GBW=100Meg
SYMBOL cap -976 1440 R0
SYMATTR InstName C2
SYMATTR Value {C}
SYMBOL res -992 1376 R90
WINDOW 0 0 56 VBottom 2
WINDOW 3 32 56 VTop 2
SYMATTR InstName R9
SYMATTR Value {1/{2*pi*fo*C}}
SYMBOL res -992 1280 R90
WINDOW 0 0 56 VBottom 2
WINDOW 3 32 56 VTop 2
SYMATTR InstName R10
SYMATTR Value 10k
SYMBOL res -816 1280 R90
WINDOW 0 0 56 VBottom 2
WINDOW 3 32 56 VTop 2
SYMATTR InstName R11
SYMATTR Value 10k
SYMBOL res -3376 128 R90
WINDOW 0 0 56 VBottom 2
WINDOW 3 32 56 VTop 2
SYMATTR InstName R5
SYMATTR Value 10k
SYMBOL cap -3408 16 R90
WINDOW 0 0 32 VBottom 2
WINDOW 3 32 32 VTop 2
SYMATTR InstName C1
SYMATTR Value 5.3n
SYMBOL cap -3632 240 R90
WINDOW 0 0 32 VBottom 2
WINDOW 3 32 32 VTop 2
SYMATTR InstName C3
SYMATTR Value 15.9µ
SYMBOL res -3776 240 R90
WINDOW 0 0 56 VBottom 2
WINDOW 3 32 56 VTop 2
SYMATTR InstName R6
SYMATTR Value 1k
SYMBOL Opamps\\opamp2 -3440 208 R0
SYMATTR InstName U3
SYMATTR Value TL084
SYMBOL voltage -1824 -464 R0
SYMATTR InstName V8
SYMATTR Value 15
SYMBOL voltage -1728 -464 R0
SYMATTR InstName V9
SYMATTR Value -15
SYMBOL bv -2864 -416 R0
WINDOW 0 37 45 Left 2
SYMATTR InstName B1
SYMATTR Value V=(white(2e6*time)/10)
SYMBOL voltage -2864 -496 R0
WINDOW 123 0 0 Left 0
WINDOW 39 0 0 Left 0
SYMATTR InstName V12
SYMATTR Value SINE(0 1 3000)
SYMBOL voltage -2464 -496 R0
WINDOW 3 26 83 Left 2
WINDOW 123 0 0 Left 0
WINDOW 39 0 0 Left 0
SYMATTR Value SINE(0 1 3000)
SYMATTR InstName V14
SYMBOL bv -2464 -416 R0
WINDOW 0 38 33 Left 2
SYMATTR InstName B2
SYMATTR Value V=(white(2e6*time)/10)
SYMBOL res -3360 640 R90
WINDOW 0 0 56 VBottom 2
WINDOW 3 32 56 VTop 2
SYMATTR InstName R8
SYMATTR Value 10k
SYMBOL cap -3392 528 R90
WINDOW 0 0 32 VBottom 2
WINDOW 3 32 32 VTop 2
SYMATTR InstName C4
SYMATTR Value 5.3n
SYMBOL cap -3616 752 R90
WINDOW 0 0 32 VBottom 2
WINDOW 3 32 32 VTop 2
SYMATTR InstName C5
SYMATTR Value 15.9µ
SYMBOL res -3760 752 R90
WINDOW 0 0 56 VBottom 2
WINDOW 3 32 56 VTop 2
SYMATTR InstName R12
SYMATTR Value 1k
SYMBOL Opamps\\opamp2 -3424 720 R0
SYMATTR InstName U5
SYMATTR Value TL084
SYMBOL Opamps\\opamp2 -1088 448 R0
SYMATTR InstName U6
SYMATTR Value TL084
TEXT -1376 -32 Left 2 ;Saturation comparator
TEXT 432 -16 Left 2 ;Differential Comparator
TEXT -1344 1088 Left 2 ;pi half Phase shifter
TEXT -1272 1208 Left 2 !.param C=3.3n fo=3k
TEXT -1272 1176 Left 2 !.inc opamp.sub
TEXT -1440 -472 Left 2 !.include ../TL084.lib
TEXT -1440 -504 Left 2 !.tran 10m
TEXT -4032 -80 Left 2 ;Filter
TEXT -2912 -608 Left 2 ;Mic. input
TEXT -1888 -560 Left 2 ;Opamp voltage
RECTANGLE Normal -128 752 -1376 -16
RECTANGLE Normal 1216 688 432 0
RECTANGLE Normal -352 1616 -1344 1104
RECTANGLE Normal -1648 -272 -1888 -544
RECTANGLE Normal -2128 -272 -2912 -592
