Version 4
SHEET 1 3620 2148
WIRE 1152 160 1120 160
WIRE 1264 160 1216 160
WIRE -1056 208 -1152 208
WIRE -912 208 -976 208
WIRE 624 208 608 208
WIRE 768 208 704 208
WIRE -3344 224 -3376 224
WIRE -3248 224 -3280 224
WIRE -176 224 -224 224
WIRE -64 224 -96 224
WIRE 464 224 400 224
WIRE 560 224 544 224
WIRE -480 288 -496 288
WIRE -352 288 -400 288
WIRE 1040 288 1040 160
WIRE 1152 288 1040 288
WIRE 1264 288 1216 288
WIRE 1328 288 1328 160
WIRE -2560 320 -2592 320
WIRE -1152 320 -1152 208
WIRE -1152 320 -1248 320
WIRE -1088 320 -1152 320
WIRE -352 320 -352 288
WIRE -224 320 -224 224
WIRE -224 320 -352 320
WIRE -208 320 -224 320
WIRE -3376 336 -3376 224
WIRE -3344 336 -3376 336
WIRE -3248 336 -3248 224
WIRE -3248 336 -3264 336
WIRE -2288 336 -2496 336
WIRE -912 336 -912 208
WIRE -912 336 -1024 336
WIRE -832 336 -912 336
WIRE -64 336 -64 224
WIRE -64 336 -144 336
WIRE 32 336 -64 336
WIRE 560 336 560 224
WIRE 608 336 608 208
WIRE 608 336 560 336
WIRE 624 336 608 336
WIRE -4592 352 -4864 352
WIRE -2560 352 -2656 352
WIRE -1088 352 -1184 352
WIRE -272 352 -352 352
WIRE -208 352 -272 352
WIRE 768 352 768 208
WIRE 768 352 688 352
WIRE -4496 368 -4496 336
WIRE -4432 368 -4496 368
WIRE -4304 368 -4368 368
WIRE -480 368 -496 368
WIRE -352 368 -352 352
WIRE -352 368 -400 368
WIRE 624 368 608 368
WIRE 1328 368 1328 288
WIRE 1360 368 1328 368
WIRE -4496 400 -4496 368
WIRE 1040 400 1040 288
WIRE 1152 400 1040 400
WIRE -4864 416 -4864 352
WIRE -1184 416 -1184 352
WIRE -1184 416 -1248 416
WIRE 464 432 400 432
WIRE 560 432 560 336
WIRE 560 432 544 432
WIRE 608 432 608 368
WIRE -3744 448 -3776 448
WIRE -3568 448 -3664 448
WIRE -3376 448 -3376 336
WIRE -3376 448 -3504 448
WIRE -3344 448 -3376 448
WIRE 1216 448 1216 400
WIRE 1264 448 1216 448
WIRE 1360 448 1360 368
WIRE 1360 448 1344 448
WIRE -4592 464 -4592 352
WIRE -4544 464 -4592 464
WIRE -3248 464 -3248 336
WIRE -3248 464 -3280 464
WIRE -3104 464 -3248 464
WIRE 400 464 400 432
WIRE -3344 480 -3376 480
WIRE 1488 480 1440 480
WIRE 1616 480 1568 480
WIRE 1040 496 1040 400
WIRE 1152 496 1040 496
WIRE 1216 496 1216 448
WIRE -3376 592 -3376 480
WIRE -4864 608 -4864 496
WIRE -4496 608 -4496 496
WIRE -4496 608 -4864 608
WIRE 1040 608 1040 496
WIRE 1152 608 1040 608
WIRE 1360 608 1360 448
WIRE 1360 608 1232 608
WIRE 1440 608 1440 480
WIRE 1440 608 1360 608
WIRE 1488 608 1440 608
WIRE -2560 624 -2592 624
WIRE 1616 624 1616 480
WIRE 1616 624 1552 624
WIRE 1664 624 1616 624
WIRE -4496 640 -4496 608
WIRE -2288 640 -2496 640
WIRE 1488 640 1456 640
WIRE 1504 640 1488 640
WIRE -2560 656 -2656 656
WIRE 1456 672 1456 640
WIRE -240 688 -416 688
WIRE 208 688 -240 688
WIRE 608 720 432 720
WIRE -3328 736 -3360 736
WIRE -3232 736 -3264 736
WIRE -416 784 -416 688
WIRE -416 784 -448 784
WIRE -384 784 -416 784
WIRE 208 800 208 688
WIRE 240 800 208 800
WIRE 352 800 320 800
WIRE 416 800 352 800
WIRE 432 800 432 720
WIRE 464 800 432 800
WIRE -416 816 -416 784
WIRE 608 816 608 720
WIRE 608 816 528 816
WIRE -240 832 -240 688
WIRE 352 832 352 800
WIRE 416 832 416 800
WIRE 464 832 416 832
WIRE 480 832 464 832
WIRE -3360 848 -3360 736
WIRE -3328 848 -3360 848
WIRE -3232 848 -3232 736
WIRE -3232 848 -3248 848
WIRE -512 848 -512 784
WIRE -320 848 -320 784
WIRE -288 848 -320 848
WIRE -80 848 -80 800
WIRE -64 848 -80 848
WIRE -80 880 -80 848
WIRE -4592 912 -4864 912
WIRE 352 912 352 896
WIRE 352 912 208 912
WIRE -4496 928 -4496 896
WIRE -4432 928 -4496 928
WIRE -4304 928 -4368 928
WIRE -512 928 -512 848
WIRE -416 928 -416 896
WIRE -416 928 -448 928
WIRE -384 928 -416 928
WIRE -320 928 -320 848
WIRE -4496 960 -4496 928
WIRE -3728 960 -3776 960
WIRE -3552 960 -3648 960
WIRE -3360 960 -3360 848
WIRE -3360 960 -3488 960
WIRE -3328 960 -3360 960
WIRE -4864 976 -4864 912
WIRE -3232 976 -3232 848
WIRE -3232 976 -3264 976
WIRE -3088 976 -3232 976
WIRE -80 976 -80 944
WIRE -64 976 -80 976
WIRE -3328 992 -3360 992
WIRE -416 1008 -416 928
WIRE -240 1008 -240 912
WIRE -240 1008 -416 1008
WIRE 208 1008 208 912
WIRE 208 1008 -240 1008
WIRE -4592 1024 -4592 912
WIRE -4544 1024 -4592 1024
WIRE -3360 1104 -3360 992
WIRE -4864 1168 -4864 1056
WIRE -4496 1168 -4496 1056
WIRE -4496 1168 -4864 1168
WIRE -4496 1200 -4496 1168
WIRE -2560 1200 -2608 1200
WIRE -2432 1200 -2480 1200
WIRE -2384 1200 -2432 1200
WIRE -2272 1200 -2304 1200
WIRE -2608 1248 -2608 1200
WIRE -2608 1248 -2736 1248
WIRE -2432 1264 -2432 1200
WIRE -2384 1264 -2432 1264
WIRE -2272 1280 -2272 1200
WIRE -2272 1280 -2320 1280
WIRE -2224 1280 -2272 1280
WIRE -2608 1296 -2608 1248
WIRE -2560 1296 -2608 1296
WIRE -2432 1296 -2480 1296
WIRE -2384 1296 -2432 1296
WIRE -2432 1344 -2432 1296
WIRE -2432 1440 -2432 1408
FLAG -2592 320 0
FLAG -1056 304 V++
FLAG -1328 320 VS2
IOPIN -1328 320 In
FLAG -1328 416 VS1
IOPIN -1328 416 In
FLAG -1184 496 0
FLAG -2432 1440 0
FLAG -1824 -368 0
FLAG -1728 -368 0
FLAG -3376 592 0
FLAG -1824 -448 V++
IOPIN -1824 -448 Out
FLAG -1728 -448 V--
IOPIN -1728 -448 Out
FLAG -3312 496 V--
FLAG -3312 432 V++
FLAG -2864 -320 0
FLAG -2464 -320 0
FLAG -3360 1104 0
FLAG -3296 1008 V--
FLAG -3296 944 V++
FLAG -3104 464 VF1
IOPIN -3104 464 Out
FLAG -3088 976 VF2
IOPIN -3088 976 Out
FLAG -2528 304 V++
IOPIN -2528 304 In
FLAG -2528 368 V--
IOPIN -2528 368 In
FLAG -2656 352 VF1
IOPIN -2656 352 In
FLAG -2288 336 VS1
IOPIN -2288 336 Out
FLAG -2592 624 0
FLAG -2528 608 V++
IOPIN -2528 608 In
FLAG -2528 672 V--
IOPIN -2528 672 In
FLAG -2656 656 VDP2
IOPIN -2656 656 In
FLAG -2288 640 VS2
IOPIN -2288 640 Out
FLAG -2736 1248 VF2
IOPIN -2736 1248 In
FLAG -2224 1280 VDP2
IOPIN -2224 1280 Out
FLAG -832 336 VDiff
IOPIN -832 336 Out
FLAG -1056 368 V--
FLAG -512 848 VDiff
IOPIN -512 848 In
FLAG -288 848 0
FLAG -176 368 V--
FLAG -176 304 V++
FLAG 400 544 0
FLAG 608 432 0
FLAG 656 384 V--
FLAG 656 320 V++
FLAG 400 352 V++
IOPIN 400 352 In
FLAG -496 368 Vdir-
IOPIN -496 368 In
FLAG -496 288 Vdir+
IOPIN -496 288 In
FLAG 32 336 Vdirdiff
IOPIN 32 336 Out
FLAG 400 224 Vdirdiff
IOPIN 400 224 In
FLAG 768 352 VDCOFF
IOPIN 768 352 Out
FLAG -4496 640 0
FLAG -4496 256 V++
FLAG -4496 1200 0
FLAG -4496 816 V++
FLAG -272 432 0
FLAG -2864 -480 IN1
FLAG -2464 -480 IN2
FLAG -3776 960 IN2
IOPIN -3776 960 In
FLAG -3776 448 IN1
IOPIN -3776 448 In
FLAG 496 784 V++
FLAG 496 848 V--
FLAG 208 1008 Vdir-
IOPIN 208 1008 Out
FLAG 608 816 Vdir+
IOPIN 608 816 Out
FLAG 1520 592 V++
FLAG 1520 656 V--
FLAG 1456 672 0
FLAG 1040 608 VDCOFF
IOPIN 1040 608 In
FLAG 1664 624 Vasin
IOPIN 1664 624 Out
SYMBOL Opamps\\opamp2 -2528 272 R0
SYMATTR InstName U1
SYMATTR Value TL084
SYMBOL Opamps\\opamp2 -1056 272 R0
SYMATTR InstName U2
SYMATTR Value TL084
SYMBOL res -1232 304 R90
WINDOW 0 0 56 VBottom 2
WINDOW 3 32 56 VTop 2
SYMATTR InstName R1
SYMATTR Value 10k
SYMBOL res -1232 400 R90
WINDOW 0 0 56 VBottom 2
WINDOW 3 32 56 VTop 2
SYMATTR InstName R2
SYMATTR Value 10k
SYMBOL res -960 192 R90
WINDOW 0 0 56 VBottom 2
WINDOW 3 32 56 VTop 2
SYMATTR InstName R3
SYMATTR Value 10k
SYMBOL res -1200 400 R0
SYMATTR InstName R4
SYMATTR Value 10k
SYMBOL Opamps\\opamp -2352 1216 R0
SYMATTR InstName U4
SYMATTR SpiceLine2 GBW=100Meg
SYMBOL cap -2448 1344 R0
SYMATTR InstName C2
SYMATTR Value {C}
SYMBOL res -2464 1280 R90
WINDOW 0 0 56 VBottom 2
WINDOW 3 32 56 VTop 2
SYMATTR InstName R9
SYMATTR Value {1/{2*pi*fo*C}}
SYMBOL res -2464 1184 R90
WINDOW 0 0 56 VBottom 2
WINDOW 3 32 56 VTop 2
SYMATTR InstName R10
SYMATTR Value 10k
SYMBOL res -2288 1184 R90
WINDOW 0 0 56 VBottom 2
WINDOW 3 32 56 VTop 2
SYMATTR InstName R11
SYMATTR Value 10k
SYMBOL res -3248 320 R90
WINDOW 0 0 56 VBottom 2
WINDOW 3 32 56 VTop 2
SYMATTR InstName R5
SYMATTR Value 10k
SYMBOL cap -3280 208 R90
WINDOW 0 0 32 VBottom 2
WINDOW 3 32 32 VTop 2
SYMATTR InstName C1
SYMATTR Value 5.3n
SYMBOL cap -3504 432 R90
WINDOW 0 0 32 VBottom 2
WINDOW 3 32 32 VTop 2
SYMATTR InstName C3
SYMATTR Value 15.9µ
SYMBOL res -3648 432 R90
WINDOW 0 0 56 VBottom 2
WINDOW 3 32 56 VTop 2
SYMATTR InstName R6
SYMATTR Value 1k
SYMBOL Opamps\\opamp2 -3312 400 R0
SYMATTR InstName U3
SYMATTR Value TL084
SYMBOL voltage -1824 -464 R0
SYMATTR InstName V8
SYMATTR Value 15
SYMBOL voltage -1728 -464 R0
SYMATTR InstName V9
SYMATTR Value -15
SYMBOL bv -2864 -416 R0
WINDOW 0 37 45 Left 2
SYMATTR InstName B1
SYMATTR Value V=(white(2e6*time)/10)
SYMBOL voltage -2864 -496 R0
WINDOW 123 0 0 Left 0
WINDOW 39 0 0 Left 0
SYMATTR InstName V12
SYMATTR Value SINE(0 1 3000 0 0 0)
SYMBOL voltage -2464 -496 R0
WINDOW 3 26 83 Left 2
WINDOW 123 0 0 Left 0
WINDOW 39 0 0 Left 0
SYMATTR Value SINE(0 1 3000 0 0 -70)
SYMATTR InstName V14
SYMBOL bv -2464 -416 R0
WINDOW 0 38 33 Left 2
SYMATTR InstName B2
SYMATTR Value V=(white(2e6*time)/10)
SYMBOL res -3232 832 R90
WINDOW 0 0 56 VBottom 2
WINDOW 3 32 56 VTop 2
SYMATTR InstName R8
SYMATTR Value 10k
SYMBOL cap -3264 720 R90
WINDOW 0 0 32 VBottom 2
WINDOW 3 32 32 VTop 2
SYMATTR InstName C4
SYMATTR Value 5.3n
SYMBOL cap -3488 944 R90
WINDOW 0 0 32 VBottom 2
WINDOW 3 32 32 VTop 2
SYMATTR InstName C5
SYMATTR Value 15.9µ
SYMBOL res -3632 944 R90
WINDOW 0 0 56 VBottom 2
WINDOW 3 32 56 VTop 2
SYMATTR InstName R12
SYMATTR Value 1k
SYMBOL Opamps\\opamp2 -3296 912 R0
SYMATTR InstName U5
SYMATTR Value TL084
SYMBOL Opamps\\opamp2 -2528 576 R0
SYMATTR InstName U6
SYMATTR Value TL084
SYMBOL cap -64 944 R180
WINDOW 0 24 56 Left 2
WINDOW 3 24 8 Left 2
SYMATTR InstName C6
SYMATTR Value 1000n
SYMBOL diode -448 912 R90
WINDOW 0 0 32 VBottom 2
WINDOW 3 32 32 VTop 2
SYMATTR InstName D1
SYMATTR Value 1N4148
SYMBOL diode -512 800 R270
WINDOW 0 32 32 VTop 2
WINDOW 3 0 32 VBottom 2
SYMATTR InstName D2
SYMATTR Value 1N4148
SYMBOL diode -384 944 R270
WINDOW 0 32 32 VTop 2
WINDOW 3 0 32 VBottom 2
SYMATTR InstName D3
SYMATTR Value 1N4148
SYMBOL diode -320 768 R90
WINDOW 0 0 32 VBottom 2
WINDOW 3 32 32 VTop 2
SYMATTR InstName D4
SYMATTR Value 1N4148
SYMBOL Opamps\\opamp2 -176 272 R0
SYMATTR InstName U7
SYMATTR Value TL084
SYMBOL res -80 208 R90
WINDOW 0 0 56 VBottom 2
WINDOW 3 32 56 VTop 2
SYMATTR InstName R16
SYMATTR Value 10k
SYMBOL res -384 272 R90
WINDOW 0 0 56 VBottom 2
WINDOW 3 32 56 VTop 2
SYMATTR InstName R17
SYMATTR Value 10k
SYMBOL res -384 352 R90
WINDOW 0 0 56 VBottom 2
WINDOW 3 32 56 VTop 2
SYMATTR InstName R14
SYMATTR Value 10k
SYMBOL Opamps\\opamp2 656 288 R0
SYMATTR InstName U8
SYMATTR Value TL084
SYMBOL res 560 208 R90
WINDOW 0 0 56 VBottom 2
WINDOW 3 32 56 VTop 2
SYMATTR InstName R18
SYMATTR Value 10k
SYMBOL res 560 416 R90
WINDOW 0 0 56 VBottom 2
WINDOW 3 32 56 VTop 2
SYMATTR InstName R19
SYMATTR Value 10k
SYMBOL res 416 560 R180
WINDOW 0 36 76 Left 2
WINDOW 3 36 40 Left 2
SYMATTR InstName R20
SYMATTR Value 10k
SYMBOL res 416 448 R180
WINDOW 0 36 76 Left 2
WINDOW 3 36 40 Left 2
SYMATTR InstName R21
SYMATTR Value 6.8k
SYMBOL res 720 192 R90
WINDOW 0 0 56 VBottom 2
WINDOW 3 32 56 VTop 2
SYMATTR InstName R22
SYMATTR Value 1.866k
SYMBOL njf -4544 400 R0
SYMATTR InstName J1
SYMBOL res -4512 240 R0
SYMATTR InstName R13
SYMATTR Value 14k
SYMBOL voltage -4864 400 R0
WINDOW 123 0 0 Left 0
WINDOW 39 0 0 Left 0
SYMATTR InstName V1
SYMATTR Value SINE(0 0.1 3000 0 0 -60)
SYMBOL cap -4432 384 R270
WINDOW 0 32 32 VTop 2
WINDOW 3 0 32 VBottom 2
SYMATTR InstName C7
SYMATTR Value 2.2ï¿½
SYMBOL njf -4544 960 R0
SYMATTR InstName J2
SYMBOL res -4512 800 R0
SYMATTR InstName R24
SYMATTR Value 14k
SYMBOL voltage -4864 960 R0
WINDOW 123 0 0 Left 0
WINDOW 39 0 0 Left 0
SYMATTR InstName V2
SYMATTR Value SINE(0 0.1 3000 0 0 0)
SYMBOL cap -4432 944 R270
WINDOW 0 32 32 VTop 2
WINDOW 3 0 32 VBottom 2
SYMATTR InstName C8
SYMATTR Value 2.2ï¿½
SYMBOL res -96 704 R0
SYMATTR InstName R7
SYMATTR Value 20k
SYMBOL res -288 336 R0
SYMATTR InstName R15
SYMATTR Value 10k
SYMBOL Opamps\\opamp2 496 752 R0
SYMATTR InstName U9
SYMATTR Value TL084
SYMBOL res 336 784 R90
WINDOW 0 0 56 VBottom 2
WINDOW 3 32 56 VTop 2
SYMATTR InstName R25
SYMATTR Value 22k
SYMBOL cap 336 832 R0
SYMATTR InstName C9
SYMATTR Value 1000n
SYMBOL res -432 800 R0
SYMATTR InstName R23
SYMATTR Value 20k
SYMBOL res 1248 592 R90
WINDOW 0 -4 42 VBottom 2
WINDOW 3 32 56 VTop 2
SYMATTR InstName R26
SYMATTR Value 10k
SYMBOL diode 1152 512 R270
WINDOW 0 32 32 VTop 2
WINDOW 3 0 32 VBottom 2
SYMATTR InstName D5
SYMATTR Value 1N4148
SYMBOL diode 1216 384 R90
WINDOW 0 0 32 VBottom 2
WINDOW 3 32 32 VTop 2
SYMATTR InstName D6
SYMATTR Value 1N4148
SYMBOL diode 1152 304 R270
WINDOW 0 32 32 VTop 2
WINDOW 3 0 32 VBottom 2
SYMATTR InstName D7
SYMATTR Value 1N4148
SYMBOL diode 1264 304 R270
WINDOW 0 32 32 VTop 2
WINDOW 3 0 32 VBottom 2
SYMATTR InstName D8
SYMATTR Value 1N4148
SYMBOL diode 1216 144 R90
WINDOW 0 0 32 VBottom 2
WINDOW 3 32 32 VTop 2
SYMATTR InstName D9
SYMATTR Value 1N4148
SYMBOL diode 1328 144 R90
WINDOW 0 0 32 VBottom 2
WINDOW 3 32 32 VTop 2
SYMATTR InstName D10
SYMATTR Value 1N4148
SYMBOL res 1136 144 R90
WINDOW 0 0 56 VBottom 2
WINDOW 3 32 56 VTop 2
SYMATTR InstName R27
SYMATTR Value 4k
SYMBOL res 1360 432 R90
WINDOW 0 0 56 VBottom 2
WINDOW 3 32 56 VTop 2
SYMATTR InstName R28
SYMATTR Value 65k
SYMBOL Opamps\\opamp2 1520 560 R0
SYMATTR InstName U10
SYMATTR Value TL084
SYMBOL res 1584 464 R90
WINDOW 0 0 56 VBottom 2
WINDOW 3 32 56 VTop 2
SYMATTR InstName R29
SYMATTR Value 35k
TEXT -2816 96 Left 2 ;Saturation comparator
TEXT -1440 128 Left 2 ;Differential Amplifier
TEXT -2816 992 Left 2 ;pi half Phase shifter
TEXT -2744 1112 Left 2 !.param C=4.7n fo=4k
TEXT -2744 1080 Left 2 !.inc opamp.sub
TEXT -1440 -472 Left 2 !.include ../TL084.lib
TEXT -1440 -504 Left 2 !.tran 0 1 0 1m
TEXT -3904 112 Left 2 ;Filter
TEXT -2912 -608 Left 2 ;Mic. input
TEXT -1888 -560 Left 2 ;Opamp voltage
TEXT -568 544 Left 2 ;Rectifier and low pass filter
TEXT -608 128 Left 2 ;Differential amplifier
TEXT 256 128 Left 2 ;DC offset (sum op-amp)
TEXT -1472 48 Left 2 ;Direction and angle
TEXT -1432 1136 Left 2 ;Description:\nINPUT: Two square signals dephased of pi/2.\nOUTPUT: A DC voltage between [V--/2;V++/2] proportional to sin(phi) \n                (Phi is the phase difference between the two input signals)\n \nDetailed explanation:\nThe first differential amplifier substract the two input signals.\nThis output is rectified and goes straight to a low-pass filter to get the average (dc component)\nTo center the voltage around 0V (if DC < V++/2 then the voltage is negative\nThe differential voltage after the low pass filter go through a differential opamp to set voltage refference back to ground\nWe use a summing opamp. In wich we sum a constant dc offset via the voltage divider
TEXT -544 608 Left 2 ;Rectifier
TEXT -232 608 Left 2 ;Low pass filter
TEXT -1440 -440 Left 2 !.include ../LM311.301
TEXT -4976 144 Left 2 ;Micros
TEXT -5376 -680 Left 2 ;Emitter
TEXT -5344 -112 Left 2 ;Integrator
TEXT -4576 -104 Left 2 ;Schmitt trigger
TEXT -3944 -104 Left 2 ;Amplifier and Speaker
TEXT -5336 -8 Left 2 ;Oscillator
LINE Normal -3984 -32 -5344 -32 2
LINE Normal -3984 -32 -3984 -32 2
LINE Normal -3984 -32 -3984 -32 2
LINE Normal -5344 -32 -3984 -32 2
LINE Normal -5344 -32 -5344 -32 2
LINE Normal -5344 -32 -5344 -32 2
LINE Normal -5344 -32 -5344 -32 2
LINE Normal -5344 -32 -5344 -32 2
LINE Normal -5344 -64 -5344 -32 2
LINE Normal -5344 -64 -5344 -64 2
LINE Normal -5344 -64 -5344 -64 2
LINE Normal -3984 -80 -3984 -32 2
RECTANGLE Normal -656 832 -1440 144
RECTANGLE Normal -1824 1520 -2816 1008
RECTANGLE Normal -1648 -272 -1888 -544
RECTANGLE Normal -2128 -272 -2912 -592
RECTANGLE Normal -2944 1184 -3904 128
RECTANGLE Normal -2976 1152 -3872 688 2
RECTANGLE Normal -2976 640 -3872 160 2
RECTANGLE Normal -2192 768 -2752 512 2
RECTANGLE Normal -2192 464 -2752 192 2
RECTANGLE Normal 112 1072 -576 560
RECTANGLE Normal 176 480 -608 144
RECTANGLE Normal 864 608 256 144
RECTANGLE Normal 992 1552 -1472 64 2
RECTANGLE Normal -4176 1376 -4976 160
RECTANGLE Normal -3200 64 -5392 -656
RECTANGLE Normal -4624 -128 -5344 -608 2
RECTANGLE Normal -3984 -128 -4576 -608 2
RECTANGLE Normal -3264 -128 -3952 -608 2
RECTANGLE Normal -2160 800 -2816 112
