Version 4
SHEET 1 1220 756
WIRE 896 352 800 352
WIRE 1040 352 976 352
WIRE -976 384 -1008 384
WIRE -704 400 -912 400
WIRE -1072 416 -1216 416
WIRE -976 416 -1072 416
WIRE 800 464 800 352
WIRE 800 464 704 464
WIRE 864 464 800 464
WIRE 1040 480 1040 352
WIRE 1040 480 928 480
WIRE 1120 480 1040 480
WIRE 864 496 768 496
WIRE 768 560 768 496
WIRE 768 560 704 560
FLAG -1008 384 0
FLAG -944 368 15
FLAG -352 512 15
FLAG -944 432 -15
FLAG -272 512 -15
FLAG -352 592 0
FLAG -272 592 0
FLAG -704 400 Vout
FLAG -1072 416 Vin
FLAG -1216 496 0
FLAG 896 448 Vcc
FLAG 896 512 Vee
FLAG 624 464 in1
FLAG 624 560 in2
FLAG 1120 480 out
FLAG 832 160 0
FLAG 944 160 0
FLAG 832 80 Vcc
FLAG 944 80 Vee
FLAG 720 160 0
FLAG 720 80 in1
FLAG 608 160 0
FLAG 608 80 in2
FLAG 768 640 0
SYMBOL Opamps\\opamp2 -944 336 R0
SYMATTR InstName U1
SYMATTR Value TL084
SYMBOL voltage -352 496 R0
WINDOW 123 0 0 Left 0
WINDOW 39 0 0 Left 0
SYMATTR InstName V1
SYMATTR Value 15
SYMBOL voltage -272 496 R0
WINDOW 123 0 0 Left 0
WINDOW 39 0 0 Left 0
SYMATTR InstName V2
SYMATTR Value -15
SYMBOL voltage -1216 400 R0
WINDOW 123 0 0 Left 0
WINDOW 39 0 0 Left 0
SYMATTR InstName V3
SYMATTR Value SINE(0 0.01 1k)
SYMBOL Opamps\\opamp2 896 416 R0
SYMATTR InstName U2
SYMATTR Value TL084
SYMBOL res 720 448 R90
WINDOW 0 0 56 VBottom 2
WINDOW 3 32 56 VTop 2
SYMATTR InstName R1
SYMATTR Value 10k
SYMBOL res 720 544 R90
WINDOW 0 0 56 VBottom 2
WINDOW 3 32 56 VTop 2
SYMATTR InstName R2
SYMATTR Value 10k
SYMBOL res 992 336 R90
WINDOW 0 0 56 VBottom 2
WINDOW 3 32 56 VTop 2
SYMATTR InstName R3
SYMATTR Value 20k
SYMBOL voltage 832 64 R0
WINDOW 123 0 0 Left 0
WINDOW 39 0 0 Left 0
SYMATTR InstName V4
SYMATTR Value 15
SYMBOL voltage 944 64 R0
WINDOW 123 0 0 Left 0
WINDOW 39 0 0 Left 0
SYMATTR InstName V5
SYMATTR Value -15
SYMBOL voltage 720 64 R0
WINDOW 3 24 96 Invisible 2
WINDOW 123 0 0 Left 0
WINDOW 39 0 0 Left 0
SYMATTR Value PULSE(-15 15 0.6m 0.01m 0.01m 1m 2m)
SYMATTR InstName V6
SYMBOL voltage 608 64 R0
WINDOW 3 24 96 Invisible 2
WINDOW 123 0 0 Left 0
WINDOW 39 0 0 Left 0
SYMATTR Value PULSE(-15 15 0 0.01m 0.01m 1m 2m)
SYMATTR InstName V7
SYMBOL res 752 544 R0
SYMATTR InstName R4
SYMATTR Value 20k
TEXT -480 136 Left 2 !.include ../TL084.lib
TEXT -472 176 Left 2 !.tran 10m
TEXT -1376 -32 Left 2 ;Saturation comparator
TEXT 432 -16 Left 2 ;Differential Comparator
RECTANGLE Normal -128 752 -1376 -16
RECTANGLE Normal 1216 688 432 0
