Version 4
SHEET 1 1844 880
WIRE 176 -16 160 -16
WIRE -1632 32 -1648 32
WIRE -1504 32 -1568 32
WIRE -1424 32 -1440 32
WIRE 80 96 80 -16
WIRE 240 96 80 96
WIRE -1648 128 -1648 32
WIRE -1632 128 -1648 128
WIRE -1504 128 -1568 128
WIRE -1424 128 -1424 32
WIRE -1424 128 -1440 128
WIRE 240 128 240 96
WIRE -176 176 -352 176
WIRE -80 176 -176 176
WIRE 16 176 0 176
WIRE -352 208 -352 176
WIRE 80 208 80 96
WIRE -1648 224 -1648 128
WIRE -1632 224 -1648 224
WIRE -1520 224 -1568 224
WIRE 16 224 16 176
WIRE 48 224 16 224
WIRE 208 240 112 240
WIRE 240 240 240 208
WIRE 240 240 208 240
WIRE 288 240 240 240
WIRE 416 240 368 240
WIRE 496 240 416 240
WIRE 608 240 576 240
WIRE 704 240 608 240
WIRE 720 240 704 240
WIRE -144 256 -224 256
WIRE -80 256 -144 256
WIRE 48 256 0 256
WIRE -1520 272 -1520 224
WIRE -1424 272 -1424 128
WIRE -1424 272 -1440 272
WIRE 416 272 416 240
WIRE 608 272 608 240
WIRE -1648 320 -1648 224
WIRE -1632 320 -1648 320
WIRE -1520 320 -1520 272
WIRE -1520 320 -1568 320
WIRE -352 320 -352 288
WIRE -224 384 -224 256
WIRE 416 384 416 336
WIRE 608 384 608 336
WIRE -1648 400 -1648 320
WIRE -1584 400 -1648 400
WIRE -1424 400 -1424 272
WIRE -1424 400 -1504 400
WIRE -1648 480 -1648 400
WIRE -1648 480 -1712 480
WIRE -224 496 -224 464
WIRE 80 496 80 272
WIRE 176 496 160 496
WIRE -1648 544 -1648 480
WIRE -1568 544 -1648 544
WIRE -1424 560 -1424 400
WIRE -1424 560 -1504 560
WIRE -1568 576 -1600 576
WIRE -1600 592 -1600 576
FLAG 176 -16 0
FLAG 176 496 0
FLAG -352 320 0
FLAG -224 496 0
FLAG 416 384 0
FLAG 704 240 out
FLAG 208 240 pwm
FLAG -144 256 input
FLAG -176 176 sine
FLAG 608 384 0
FLAG -1600 592 0
FLAG -1792 480 Vin
FLAG -912 288 0
FLAG -1088 288 0
FLAG -1232 288 0
FLAG -1232 208 Vcc
FLAG -1536 528 Vcc
FLAG -1088 208 Vee
FLAG -1536 592 Vee
FLAG -912 208 Vin
SYMBOL Opamps\\opamp2 80 176 R0
SYMATTR InstName U1
SYMATTR Value LM393
SYMBOL voltage 64 -16 R270
WINDOW 0 32 56 VTop 0
WINDOW 3 -32 56 VBottom 0
WINDOW 123 0 0 Left 0
WINDOW 39 0 0 Left 0
SYMATTR InstName V1
SYMATTR Value 5V
SYMBOL voltage 176 496 M270
WINDOW 0 32 56 VTop 0
WINDOW 3 -32 56 VBottom 0
WINDOW 123 0 0 Left 0
WINDOW 39 0 0 Left 0
SYMATTR InstName V2
SYMATTR Value 5V
SYMBOL voltage -352 192 R0
WINDOW 0 -88 13 Left 0
WINDOW 3 -215 96 Left 0
WINDOW 123 0 0 Left 0
WINDOW 39 0 0 Left 0
SYMATTR InstName Vsine
SYMATTR Value SINE(0 2V 10kHz)
SYMBOL voltage -224 368 R0
WINDOW 0 -88 13 Left 0
WINDOW 3 -195 85 Left 0
WINDOW 123 0 0 Left 0
WINDOW 39 0 0 Left 0
SYMATTR InstName Vinput
SYMATTR Value PWL(0 -2 100m 2)
SYMBOL res 16 160 R90
WINDOW 0 0 56 VBottom 0
WINDOW 3 32 56 VTop 0
SYMATTR InstName R1
SYMATTR Value 100
SYMBOL res 16 240 R90
WINDOW 0 0 56 VBottom 0
WINDOW 3 32 56 VTop 0
SYMATTR InstName R2
SYMATTR Value 100
SYMBOL res 224 112 R0
SYMATTR InstName R3
SYMATTR Value 1k5
SYMBOL res 384 224 R90
WINDOW 0 0 56 VBottom 0
WINDOW 3 32 56 VTop 0
SYMATTR InstName R4
SYMATTR Value 100k
SYMBOL cap 400 272 R0
SYMATTR InstName C1
SYMATTR Value 1n
SYMBOL cap 592 272 R0
SYMATTR InstName C2
SYMATTR Value 1n
SYMBOL res 592 224 R90
WINDOW 0 0 56 VBottom 0
WINDOW 3 32 56 VTop 0
SYMATTR InstName R5
SYMATTR Value 100k
SYMBOL diode -1568 16 R90
WINDOW 0 0 32 VBottom 2
WINDOW 3 32 32 VTop 2
SYMATTR InstName D1
SYMBOL diode -1440 16 R90
WINDOW 0 0 32 VBottom 2
WINDOW 3 32 32 VTop 2
SYMATTR InstName D2
SYMBOL diode -1504 144 R270
WINDOW 0 32 32 VTop 2
WINDOW 3 0 32 VBottom 2
SYMATTR InstName D3
SYMBOL diode -1632 144 R270
WINDOW 0 32 32 VTop 2
WINDOW 3 0 32 VBottom 2
SYMATTR InstName D4
SYMBOL diode -1568 208 R90
WINDOW 0 0 32 VBottom 2
WINDOW 3 32 32 VTop 2
SYMATTR InstName D5
SYMBOL diode -1632 336 R270
WINDOW 0 32 32 VTop 2
WINDOW 3 0 32 VBottom 2
SYMATTR InstName D6
SYMBOL res -1424 256 R90
WINDOW 0 0 56 VBottom 2
WINDOW 3 32 56 VTop 2
SYMATTR InstName R6
SYMATTR Value 3.3k
SYMBOL res -1488 384 R90
WINDOW 0 0 56 VBottom 2
WINDOW 3 32 56 VTop 2
SYMATTR InstName R7
SYMATTR Value 2.2k
SYMBOL Opamps\\opamp2 -1536 496 R0
SYMATTR InstName U2
SYMATTR Value TL084
SYMBOL res -1696 464 R90
WINDOW 0 0 56 VBottom 2
WINDOW 3 32 56 VTop 2
SYMATTR InstName R8
SYMATTR Value 1k
SYMBOL voltage -1232 192 R0
WINDOW 123 0 0 Left 0
WINDOW 39 0 0 Left 0
SYMATTR InstName V3
SYMATTR Value 15
SYMBOL voltage -1088 192 R0
WINDOW 123 0 0 Left 0
WINDOW 39 0 0 Left 0
SYMATTR InstName V4
SYMATTR Value -15
SYMBOL voltage -912 192 R0
WINDOW 123 0 0 Left 0
WINDOW 39 0 0 Left 0
SYMATTR InstName V5
SYMATTR Value PULSE(-1 1 0 1m 1m 0 2m)
SYMBOL Opamps\\opamp2 -16 64 R0
SYMATTR InstName U3
TEXT -144 544 Left 0 !.tran 100m
TEXT -176 -176 Left 0 ;Arc sine converter - principle                km\n------------------------------------------------------------------
TEXT 864 -56 Left 0 !.subckt LM393    1 2 3 4 5\n*\n  f1    9  3 v1 1\n  iee   3  7 dc 100.0E-6\n  vi1  21  1 dc .75\n  vi2  22  2 dc .75\n  q1    9 21  7 qin\n  q2    8 22  7 qin\n  q3    9  8  4 qmo\n  q4    8  8  4 qmi\n.model qin PNP(Is=800.0E-18 Bf=2.000E3)\n.model qmi NPN(Is=800.0E-18 Bf=1002)\n.model qmo NPN(Is=800.0E-18 Bf=1000 Cjc=1E-15 Tr=475.4E-9)\n  e1   10  4  9  4  1\n  v1   10 11 dc 0\n  q5    5 11  4 qoc\n.model qoc NPN(Is=800.0E-18 Bf=20.69E3 Cjc=1E-15 Tf=3.540E-9 Tr=472.8E-9)\n  dp    4  3 dx\n  rp    3  4 37.50E3\n.model dx  D(Is=800.0E-18 Rs=1)\n.ends
TEXT -1336 864 Left 2 !.include TL084.lib
