Version 4
SHEET 1 1684 680
WIRE 64 -64 48 -64
WIRE 176 -64 128 -64
WIRE 48 16 48 -64
WIRE 48 16 32 16
WIRE 64 16 48 16
WIRE 176 32 176 -64
WIRE 176 32 128 32
WIRE 256 32 176 32
WIRE 384 32 336 32
WIRE 576 32 480 32
WIRE 688 32 656 32
WIRE 960 64 912 64
WIRE 1072 64 1040 64
WIRE 384 128 384 32
WIRE 480 128 480 32
WIRE 480 128 384 128
WIRE 576 128 480 128
WIRE 1392 128 1360 128
WIRE 1536 128 1472 128
WIRE 688 144 688 32
WIRE 688 144 640 144
WIRE 768 144 688 144
WIRE 912 144 912 64
WIRE 912 144 832 144
WIRE 912 192 912 144
WIRE 960 192 912 192
WIRE 1072 208 1072 64
WIRE 1072 208 1024 208
WIRE 1168 208 1072 208
WIRE 1296 208 1248 208
WIRE 1296 224 1296 208
WIRE 1360 224 1360 128
WIRE 1360 224 1296 224
WIRE 1392 224 1360 224
WIRE 1536 240 1536 128
WIRE 1536 240 1456 240
WIRE 1616 240 1536 240
WIRE 64 256 48 256
WIRE 176 256 128 256
WIRE 48 336 48 256
WIRE 48 336 32 336
WIRE 64 336 48 336
WIRE 1296 336 1296 224
WIRE 1296 336 1280 336
WIRE 176 352 176 256
WIRE 176 352 128 352
WIRE 256 352 176 352
WIRE 384 352 384 128
WIRE 384 352 336 352
WIRE 1296 448 1296 336
WIRE 1296 448 1280 448
FLAG 64 48 0
FLAG 64 368 0
FLAG 576 160 0
FLAG 960 224 0
FLAG 1392 256 0
FLAG -80 -240 0
FLAG 32 -240 0
FLAG -176 -240 0
FLAG -288 -240 0
FLAG -288 -320 Vcc
FLAG 96 0 Vcc
FLAG 96 320 Vcc
FLAG 608 112 Vcc
FLAG 992 176 Vcc
FLAG 1424 208 Vcc
FLAG -176 -320 Vee
FLAG 96 64 Vee
FLAG 96 384 Vee
FLAG 608 176 Vee
FLAG 992 240 Vee
FLAG 1424 272 Vee
FLAG -48 16 V1
FLAG -80 -320 V1
FLAG 1200 336 V1
FLAG 32 -320 V2
FLAG -48 336 V2
FLAG 1200 448 V2
FLAG 1616 320 0
SYMBOL Opamps\\opamp2 96 -32 R0
SYMATTR InstName U1
SYMATTR Value TL084
SYMBOL Opamps\\opamp2 96 288 R0
SYMATTR InstName U2
SYMATTR Value TL084
SYMBOL Opamps\\opamp2 608 80 R0
SYMATTR InstName U3
SYMATTR Value TL084
SYMBOL Opamps\\opamp2 992 144 R0
SYMATTR InstName U4
SYMATTR Value TL084
SYMBOL res 48 0 R90
WINDOW 0 0 56 VBottom 2
WINDOW 3 32 56 VTop 2
SYMATTR InstName R1
SYMATTR Value 10k
SYMBOL res 48 320 R90
WINDOW 0 0 56 VBottom 2
WINDOW 3 32 56 VTop 2
SYMATTR InstName R2
SYMATTR Value 10k
SYMBOL res 352 16 R90
WINDOW 0 0 56 VBottom 2
WINDOW 3 32 56 VTop 2
SYMATTR InstName R3
SYMATTR Value 10k
SYMBOL res 352 336 R90
WINDOW 0 0 56 VBottom 2
WINDOW 3 32 56 VTop 2
SYMATTR InstName R4
SYMATTR Value 10k
SYMBOL diode 64 272 R270
WINDOW 0 32 32 VTop 2
WINDOW 3 0 32 VBottom 2
SYMATTR InstName D1
SYMBOL diode 64 -48 R270
WINDOW 0 32 32 VTop 2
WINDOW 3 0 32 VBottom 2
SYMATTR InstName D2
SYMBOL diode 768 160 R270
WINDOW 0 32 32 VTop 2
WINDOW 3 0 32 VBottom 2
SYMATTR InstName D3
SYMBOL res 672 16 R90
WINDOW 0 0 56 VBottom 2
WINDOW 3 32 56 VTop 2
SYMATTR InstName R5
SYMATTR Value 10k
SYMBOL res 1056 48 R90
WINDOW 0 0 56 VBottom 2
WINDOW 3 32 56 VTop 2
SYMATTR InstName R6
SYMATTR Value 10k
SYMBOL res 1264 192 R90
WINDOW 0 0 56 VBottom 2
WINDOW 3 32 56 VTop 2
SYMATTR InstName R7
SYMATTR Value 10k
SYMBOL res 1296 320 R90
WINDOW 0 0 56 VBottom 2
WINDOW 3 32 56 VTop 2
SYMATTR InstName R8
SYMATTR Value 10k
SYMBOL res 1296 432 R90
WINDOW 0 0 56 VBottom 2
WINDOW 3 32 56 VTop 2
SYMATTR InstName R9
SYMATTR Value 10k
SYMBOL Opamps\\opamp2 1424 176 R0
SYMATTR InstName U5
SYMATTR Value TL084
SYMBOL res 1488 112 R90
WINDOW 0 0 56 VBottom 2
WINDOW 3 32 56 VTop 2
SYMATTR InstName R10
SYMATTR Value 10k
SYMBOL voltage -288 -336 R0
WINDOW 123 0 0 Left 0
WINDOW 39 0 0 Left 0
SYMATTR InstName V1
SYMATTR Value 15
SYMBOL voltage -176 -336 R0
WINDOW 123 0 0 Left 0
WINDOW 39 0 0 Left 0
SYMATTR InstName V2
SYMATTR Value -15
SYMBOL voltage -80 -336 R0
WINDOW 123 0 0 Left 0
WINDOW 39 0 0 Left 0
SYMATTR InstName V3
SYMATTR Value 2
SYMBOL voltage 32 -336 R0
WINDOW 123 0 0 Left 0
WINDOW 39 0 0 Left 0
SYMATTR InstName V4
SYMATTR Value 1
TEXT 1088 -264 Left 2 !.include TL084.lib
TEXT -322 510 Left 2 !.tran 1
