Version 4
SHEET 1 1840 1240
WIRE -384 -336 -384 -400
WIRE -336 -336 -384 -336
WIRE -1216 -320 -1312 -320
WIRE -1088 -320 -1136 -320
WIRE -880 -320 -1088 -320
WIRE -160 -320 -272 -320
WIRE -96 -320 -160 -320
WIRE -720 -304 -816 -304
WIRE -656 -304 -720 -304
WIRE -336 -304 -368 -304
WIRE 272 -304 192 -304
WIRE 432 -304 336 -304
WIRE -880 -288 -976 -288
WIRE -976 -256 -976 -288
WIRE -1312 -192 -1312 -320
WIRE -368 -160 -368 -304
WIRE -336 -160 -368 -160
WIRE -160 -160 -160 -320
WIRE -160 -160 -256 -160
WIRE -1088 -48 -1088 -320
WIRE -880 -48 -1088 -48
WIRE -720 -48 -720 -304
WIRE -720 -48 -816 -48
FLAG -848 -528 0
FLAG -672 -528 0
FLAG -848 -608 VCC
FLAG -672 -608 VEE
FLAG -304 -288 VEE
FLAG -304 -352 VCC
FLAG -96 -320 Vout
FLAG -848 -336 VCC
FLAG -848 -272 VEE
FLAG -1312 -192 Vout
FLAG -656 -304 Vin2
FLAG -976 -256 0
FLAG -448 -304 Vin2
FLAG -384 -400 0
FLAG 288 -336 VCC
FLAG 304 -272 VEE
FLAG 192 -304 Vout
FLAG 432 -304 Vout2
SYMBOL Opamps\\opamp2 -304 -384 R0
SYMATTR InstName U1
SYMATTR Value TL084
SYMBOL voltage -848 -624 R0
SYMATTR InstName V1
SYMATTR Value 15
SYMBOL voltage -672 -624 R0
SYMATTR InstName V2
SYMATTR Value -15
SYMBOL res -240 -176 R90
WINDOW 0 0 56 VBottom 2
WINDOW 3 32 56 VTop 2
SYMATTR InstName R2
SYMATTR Value 25
SYMBOL Opamps\\opamp2 -848 -368 R0
SYMATTR InstName U2
SYMATTR Value TL084
SYMBOL res -1120 -336 R90
WINDOW 0 0 56 VBottom 2
WINDOW 3 32 56 VTop 2
SYMATTR InstName R4
SYMATTR Value 100k
SYMBOL res -352 -320 R90
WINDOW 0 0 56 VBottom 2
WINDOW 3 32 56 VTop 2
SYMATTR InstName R1
SYMATTR Value 3
SYMBOL cap -816 -64 R90
WINDOW 0 0 32 VBottom 2
WINDOW 3 32 32 VTop 2
SYMATTR InstName C1
SYMATTR Value 10.42n
SYMBOL Opamps\\LT1010 304 -368 R0
SYMATTR InstName U3
TEXT -192 -616 Left 2 !.include TL084.lib
TEXT -184 -576 Left 2 !.tran 1000m
TEXT -208 -376 Left 2 ;Vseuil=(VCC*R1)/(R1+R2)
