Version 4
SHEET 1 1280 680
WIRE 512 -96 416 -96
WIRE 656 -96 592 -96
WIRE 384 16 320 16
WIRE 416 16 416 -96
WIRE 416 16 384 16
WIRE 480 16 416 16
WIRE 656 32 656 -96
WIRE 656 32 544 32
WIRE 736 32 656 32
WIRE 480 48 448 48
WIRE 448 80 448 48
WIRE 384 112 384 16
WIRE 384 112 320 112
FLAG 448 80 0
FLAG 512 0 Vcc
FLAG 512 64 Vee
FLAG 240 16 in1
FLAG 240 112 in2
FLAG 736 32 out
FLAG 448 -288 0
FLAG 560 -288 0
FLAG 448 -368 Vcc
FLAG 560 -368 Vee
FLAG 336 -288 0
FLAG 336 -368 in1
FLAG 224 -288 0
FLAG 224 -368 in2
SYMBOL Opamps\\opamp2 512 -32 R0
SYMATTR InstName U1
SYMATTR Value TL084
SYMBOL res 336 0 R90
WINDOW 0 0 56 VBottom 2
WINDOW 3 32 56 VTop 2
SYMATTR InstName R1
SYMATTR Value 10k
SYMBOL res 336 96 R90
WINDOW 0 0 56 VBottom 2
WINDOW 3 32 56 VTop 2
SYMATTR InstName R2
SYMATTR Value 5k
SYMBOL res 608 -112 R90
WINDOW 0 0 56 VBottom 2
WINDOW 3 32 56 VTop 2
SYMATTR InstName R3
SYMATTR Value 10k
SYMBOL voltage 448 -384 R0
WINDOW 123 0 0 Left 0
WINDOW 39 0 0 Left 0
SYMATTR InstName V1
SYMATTR Value 15
SYMBOL voltage 560 -384 R0
WINDOW 123 0 0 Left 0
WINDOW 39 0 0 Left 0
SYMATTR InstName V2
SYMATTR Value -15
SYMBOL voltage 336 -384 R0
WINDOW 3 24 96 Invisible 2
WINDOW 123 0 0 Left 0
WINDOW 39 0 0 Left 0
SYMATTR Value SINE(0 1 1k)
SYMATTR InstName V3
SYMBOL voltage 224 -384 R0
WINDOW 3 24 96 Invisible 2
WINDOW 123 0 0 Left 0
WINDOW 39 0 0 Left 0
SYMATTR Value 1
SYMATTR InstName V4
TEXT 1076 -210 Left 2 !.tran 10m
TEXT 1072 -240 Left 2 !.include TL084.lib
